<?xml version="1.0" encoding="utf-8"?>
<!DOCTYPE population SYSTEM "http://www.matsim.org/files/dtd/population_v6.dtd">

<population>



<!-- ====================================================================== -->

	<person id="15">
		<plan selected="yes">
			<activity type="HOME" x="4456712.5" y="5404189.0" start_time="00:24:00" end_time="00:29:28" >
			</activity>
			<leg mode="ELECTRIC_CAR" dep_time="00:29:28" trav_time="00:00:02">
			</leg>
			<activity type="ACCOMPANY" x="4458068.86626199" y="5403697.62595843" start_time="00:29:30" end_time="00:30:45" >
			</activity>
			<leg mode="ELECTRIC_CAR" dep_time="00:30:45" trav_time="00:00:00">
			</leg>
			<activity type="ACCOMPANY" x="4458357.44594906" y="5403447.75927903" start_time="00:30:53" end_time="00:31:08" >
			</activity>
			<leg mode="ELECTRIC_CAR" dep_time="00:31:08" trav_time="00:00:02">
			</leg>
			<activity type="HOME" x="4456712.5" y="5404189.0" start_time="02:00:00" end_time="02:07:57" >
			</activity>
			<leg mode="ELECTRIC_CAR" dep_time="02:07:57" trav_time="00:00:02">
			</leg>
			<activity type="ACCOMPANY" x="4457338.03622557" y="5403172.18341814" start_time="02:07:59" end_time="02:08:14" >
			</activity>
			<leg mode="ELECTRIC_CAR" dep_time="02:08:14" trav_time="00:00:02">
			</leg>
		</plan>

	</person>

<!-- ====================================================================== -->

	<person id="16">
		<plan selected="yes">
			<activity type="HOME" x="4456712.5" y="5404189.0" start_time="00:13:19" end_time="00:14:30" >
			</activity>
			<leg mode="ELECTRIC_CAR" dep_time="00:14:30" trav_time="00:00:23">
			</leg>
			<activity type="HOME" x="4456712.5" y="5404189.0" start_time="00:13:19" end_time="00:14:30" >
			</activity>
			<leg mode="ELECTRIC_CAR" dep_time="00:14:30" trav_time="00:00:23">
			</leg>
			<activity type="ACCOMPANY" x="4463037.19836652" y="5376892.0412393" start_time="00:14:53" end_time="00:15:08" >
			</activity>
			<leg mode="ELECTRIC_CAR" dep_time="00:15:08" trav_time="00:00:01">
			</leg>
			<activity type="OTHER" x="4462319.37776438" y="5377249.68940324" start_time="00:15:16" end_time="00:17:16" >
			</activity>
			<leg mode="ELECTRIC_CAR" dep_time="00:17:16" trav_time="00:00:24">
			</leg>
			<activity type="HOME" x="4456712.5" y="5404189.0" start_time="00:24:00" end_time="00:36:40" >
			</activity>
			<leg mode="ELECTRIC_CAR" dep_time="00:36:40" trav_time="00:00:01">
			</leg>
			<activity type="RECREATION" x="4454912.5533134" y="5404330.45043484" start_time="00:36:41" end_time="00:38:41" >
			</activity>
			<leg mode="ELECTRIC_CAR" dep_time="00:38:41" trav_time="00:00:04">
			</leg>
			<activity type="ACCOMPANY" x="4457949.10066321" y="5402648.09047883" start_time="00:38:46" end_time="00:39:01" >
			</activity>
			<leg mode="ELECTRIC_CAR" dep_time="00:39:01" trav_time="00:00:03">
			</leg>
			<activity type="HOME" x="4456712.5" y="5404189.0" start_time="00:39:04" end_time="00:42:03" >
			</activity>
			<leg mode="ELECTRIC_CAR" dep_time="00:42:03" trav_time="00:00:15">
			</leg>
			<activity type="HOME" x="4456712.5" y="5404189.0" start_time="00:39:04" end_time="00:42:03" >
			</activity>
			<leg mode="ELECTRIC_CAR" dep_time="00:42:03" trav_time="00:00:15">
			</leg>
			<activity type="RECREATION" x="4467753.43244012" y="5402287.59206533" start_time="00:42:18" end_time="00:44:18" >
			</activity>
			<leg mode="ELECTRIC_CAR" dep_time="00:44:18" trav_time="00:00:07">
			</leg>
			<activity type="RECREATION" x="4464428.02626619" y="5404131.10362135" start_time="00:44:37" end_time="00:46:52" >
			</activity>
			<leg mode="ELECTRIC_CAR" dep_time="00:46:52" trav_time="00:00:07">
			</leg>
			<activity type="HOME" x="4456712.5" y="5404189.0" start_time="00:48:00" end_time="00:58:34" >
			</activity>
			<leg mode="ELECTRIC_CAR" dep_time="00:58:34" trav_time="00:00:06">
			</leg>
			<activity type="OTHER" x="4460418.97632696" y="5401683.59446969" start_time="00:58:40" end_time="00:59:40" >
			</activity>
			<leg mode="ELECTRIC_CAR" dep_time="00:59:40" trav_time="00:00:06">
			</leg>
			<activity type="HOME" x="4456712.5" y="5404189.0" start_time="01:50:54" end_time="01:52:03" >
			</activity>
			<leg mode="ELECTRIC_CAR" dep_time="01:52:03" trav_time="00:00:05">
			</leg>
			<activity type="RECREATION" x="4457185.74573091" y="5401944.16010182" start_time="01:52:08" end_time="01:53:08" >
			</activity>
			<leg mode="ELECTRIC_CAR" dep_time="01:53:08" trav_time="00:00:07">
			</leg>
			<activity type="OTHER" x="4453881.7253532" y="5405038.30757299" start_time="01:53:25" end_time="01:53:40" >
			</activity>
			<leg mode="ELECTRIC_CAR" dep_time="01:53:40" trav_time="00:00:05">
			</leg>
			<activity type="ACCOMPANY" x="4457962.14093897" y="5402796.2955239" start_time="01:53:46" end_time="01:54:01" >
			</activity>
			<leg mode="ELECTRIC_CAR" dep_time="01:54:01" trav_time="00:00:03">
			</leg>
			<activity type="HOME" x="4456712.5" y="5404189.0" start_time="02:24:00" end_time="02:32:46" >
			</activity>
			<leg mode="ELECTRIC_CAR" dep_time="02:32:46" trav_time="00:00:07">
			</leg>
			<activity type="RECREATION" x="4449320.0737477" y="5404039.84392989" start_time="02:32:53" end_time="02:33:08" >
			</activity>
			<leg mode="ELECTRIC_CAR" dep_time="02:33:08" trav_time="00:00:07">
			</leg>
			<activity type="RECREATION" x="4456173.46510147" y="5404286.231684" start_time="02:33:29" end_time="02:34:29" >
			</activity>
			<leg mode="ELECTRIC_CAR" dep_time="02:34:29" trav_time="00:00:01">
			</leg>
			<activity type="OTHER" x="4456657.19226794" y="5404959.5624521" start_time="02:34:41" end_time="02:35:41" >
			</activity>
			<leg mode="ELECTRIC_CAR" dep_time="02:35:41" trav_time="00:00:00">
			</leg>
		</plan>

	</person>

<!-- ====================================================================== -->

	<person id="17">
		<plan selected="yes">
			<activity type="HOME" x="4456712.5" y="5404189.0" start_time="01:36:00" end_time="01:44:11" >
			</activity>
			<leg mode="ELECTRIC_CAR" dep_time="01:44:11" trav_time="00:00:03">
			</leg>
			<activity type="ACCOMPANY" x="4457867.26741797" y="5402643.53001222" start_time="01:44:14" end_time="01:44:29" >
			</activity>
			<leg mode="ELECTRIC_CAR" dep_time="01:44:29" trav_time="00:00:03">
			</leg>
		</plan>

	</person>

<!-- ====================================================================== -->

	<person id="18">
		<plan selected="yes">
		</plan>

	</person>

<!-- ====================================================================== -->

	<person id="19">
		<plan selected="yes">
		</plan>

	</person>

<!-- ====================================================================== -->

	<person id="52">
		<plan selected="yes">
			<activity type="HOME" x="4460026.0" y="5403523.5" start_time="00:24:00" end_time="00:33:05" >
			</activity>
			<leg mode="ELECTRIC_CAR" dep_time="00:33:05" trav_time="00:00:11">
			</leg>
			<activity type="SHOPPING" x="4467648.97729116" y="5411179.52647492" start_time="00:33:16" end_time="00:33:46" >
			</activity>
			<leg mode="ELECTRIC_CAR" dep_time="00:33:46" trav_time="00:00:14">
			</leg>
			<activity type="SHOPPING" x="4461548.13286076" y="5401842.5926255" start_time="00:34:03" end_time="00:34:28" >
			</activity>
			<leg mode="ELECTRIC_CAR" dep_time="00:34:28" trav_time="00:00:04">
			</leg>
			<activity type="HOME" x="4460026.0" y="5403523.5" start_time="00:34:32" end_time="00:41:06" >
			</activity>
			<leg mode="ELECTRIC_CAR" dep_time="00:41:06" trav_time="00:00:05">
			</leg>
			<activity type="HOME" x="4460026.0" y="5403523.5" start_time="00:34:32" end_time="00:41:06" >
			</activity>
			<leg mode="ELECTRIC_CAR" dep_time="00:41:06" trav_time="00:00:05">
			</leg>
			<activity type="SHOPPING" x="4456425.88007285" y="5403477.23639776" start_time="00:41:11" end_time="00:41:36" >
			</activity>
			<leg mode="ELECTRIC_CAR" dep_time="00:41:36" trav_time="00:00:05">
			</leg>
			<activity type="HOME" x="4460026.0" y="5403523.5" start_time="00:48:00" end_time="00:54:27" >
			</activity>
			<leg mode="ELECTRIC_CAR" dep_time="00:54:27" trav_time="00:00:07">
			</leg>
			<activity type="RECREATION" x="4454516.05608328" y="5403525.25461967" start_time="00:54:34" end_time="00:56:34" >
			</activity>
			<leg mode="ELECTRIC_CAR" dep_time="00:56:34" trav_time="00:00:07">
			</leg>
			<activity type="HOME" x="4460026.0" y="5403523.5" start_time="00:56:41" end_time="00:58:00" >
			</activity>
			<leg mode="ELECTRIC_CAR" dep_time="00:58:00" trav_time="00:00:10">
			</leg>
			<activity type="HOME" x="4460026.0" y="5403523.5" start_time="00:56:41" end_time="00:58:00" >
			</activity>
			<leg mode="ELECTRIC_CAR" dep_time="00:58:00" trav_time="00:00:10">
			</leg>
			<activity type="SHOPPING" x="4453708.5096553" y="5406229.15620056" start_time="00:58:10" end_time="00:58:35" >
			</activity>
			<leg mode="ELECTRIC_CAR" dep_time="00:58:35" trav_time="00:00:10">
			</leg>
			<activity type="HOME" x="4460026.0" y="5403523.5" start_time="00:58:45" end_time="01:03:00" >
			</activity>
			<leg mode="ELECTRIC_CAR" dep_time="01:03:00" trav_time="00:00:06">
			</leg>
			<activity type="HOME" x="4460026.0" y="5403523.5" start_time="00:58:45" end_time="01:03:00" >
			</activity>
			<leg mode="ELECTRIC_CAR" dep_time="01:03:00" trav_time="00:00:06">
			</leg>
			<activity type="SHOPPING" x="4461689.0701137" y="5398316.82548931" start_time="01:03:06" end_time="01:03:31" >
			</activity>
			<leg mode="ELECTRIC_CAR" dep_time="01:03:31" trav_time="00:00:06">
			</leg>
			<activity type="HOME" x="4460026.0" y="5403523.5" start_time="01:12:00" end_time="01:25:18" >
			</activity>
			<leg mode="ELECTRIC_CAR" dep_time="01:25:18" trav_time="00:00:11">
			</leg>
			<activity type="RECREATION" x="4455164.78619583" y="5407774.0016061" start_time="01:25:29" end_time="01:27:29" >
			</activity>
			<leg mode="ELECTRIC_CAR" dep_time="01:27:29" trav_time="00:00:11">
			</leg>
			<activity type="HOME" x="4460026.0" y="5403523.5" start_time="01:27:40" end_time="01:30:10" >
			</activity>
			<leg mode="ELECTRIC_CAR" dep_time="01:30:10" trav_time="00:00:04">
			</leg>
			<activity type="HOME" x="4460026.0" y="5403523.5" start_time="01:27:40" end_time="01:30:10" >
			</activity>
			<leg mode="ELECTRIC_CAR" dep_time="01:30:10" trav_time="00:00:04">
			</leg>
			<activity type="RECREATION" x="4459901.71395859" y="5400339.3657922" start_time="01:30:14" end_time="01:30:59" >
			</activity>
			<leg mode="ELECTRIC_CAR" dep_time="01:30:59" trav_time="00:00:04">
			</leg>
			<activity type="HOME" x="4460026.0" y="5403523.5" start_time="01:36:00" end_time="01:55:14" >
			</activity>
			<leg mode="ELECTRIC_CAR" dep_time="01:55:14" trav_time="00:00:04">
			</leg>
			<activity type="SHOPPING" x="4461327.11994879" y="5401922.46917833" start_time="01:55:18" end_time="01:55:43" >
			</activity>
			<leg mode="ELECTRIC_CAR" dep_time="01:55:43" trav_time="00:00:04">
			</leg>
			<activity type="HOME" x="4460026.0" y="5403523.5" start_time="02:13:14" end_time="02:13:22" >
			</activity>
			<leg mode="ELECTRIC_CAR" dep_time="02:13:22" trav_time="00:00:11">
			</leg>
			<activity type="HOME" x="4460026.0" y="5403523.5" start_time="02:13:14" end_time="02:13:22" >
			</activity>
			<leg mode="ELECTRIC_CAR" dep_time="02:13:22" trav_time="00:00:11">
			</leg>
			<activity type="OTHER" x="4457513.57698974" y="5409919.60810269" start_time="02:13:33" end_time="02:14:33" >
			</activity>
			<leg mode="ELECTRIC_CAR" dep_time="02:14:33" trav_time="00:00:11">
			</leg>
			<activity type="HOME" x="4460026.0" y="5403523.5" start_time="02:24:00" end_time="02:26:37" >
			</activity>
			<leg mode="ELECTRIC_CAR" dep_time="02:26:37" trav_time="00:00:04">
			</leg>
			<activity type="RECREATION" x="4457790.93206757" y="5405508.80588518" start_time="02:26:41" end_time="02:28:41" >
			</activity>
			<leg mode="ELECTRIC_CAR" dep_time="02:28:41" trav_time="00:00:04">
			</leg>
			<activity type="HOME" x="4460026.0" y="5403523.5" start_time="02:36:24" end_time="02:38:16" >
			</activity>
			<leg mode="ELECTRIC_CAR" dep_time="02:38:16" trav_time="00:00:08">
			</leg>
			<activity type="HOME" x="4460026.0" y="5403523.5" start_time="02:36:24" end_time="02:38:16" >
			</activity>
			<leg mode="ELECTRIC_CAR" dep_time="02:38:16" trav_time="00:00:08">
			</leg>
			<activity type="OTHER" x="4452367.10988106" y="5402241.1256417" start_time="02:38:24" end_time="02:38:54" >
			</activity>
			<leg mode="ELECTRIC_CAR" dep_time="02:38:54" trav_time="00:00:08">
			</leg>
		</plan>

	</person>

<!-- ====================================================================== -->

</population>
